<?xml version="1.0" encoding="UTF-8"?>

<!-- generated on 2024-07-10 14:32:49 by Eclipse SUMO netedit Version 1.19.0
-->

<additional xmlns:xsi="http://www.w3.org/2001/XMLSchema-instance" xsi:noNamespaceSchemaLocation="http://sumo.dlr.de/xsd/additional_file.xsd">
    <!-- Detectors -->
    <inductionLoop id="e1_0" lane="660942464_1" pos="60.00" period="5.00" file="e1_5.xml"/>
    <inductionLoop id="e1_1" lane="660942464_0" pos="60.00" period="5.00" file="e1_4.xml"/>
    <inductionLoop id="e1_2" lane="-24203041#0_0" pos="0.00" period="5.00" file="e1_0.xml"/>
    <inductionLoop id="e1_3" lane="-24203041#0_1" pos="0.00" period="5.00" file="e1_1.xml"/>
    <inductionLoop id="e1_4" lane="660942467#1_1" pos="6.00" period="5.00" file="e1_3.xml"/>
    <inductionLoop id="e1_5" lane="660942467#1_0" pos="6.00" period="5.00" file="e1_2.xml"/>
</additional>
