<?xml version="1.0" encoding="UTF-8"?>

<!-- generated on 2025-11-13 18:05:38 by Eclipse SUMO netedit Version 1.19.0
<configuration xmlns:xsi="http://www.w3.org/2001/XMLSchema-instance" xsi:noNamespaceSchemaLocation="http://sumo.dlr.de/xsd/neteditConfiguration.xsd">

    <input>
        <sumocfg-file value="C:\Users\kende\Desktop\SUMO_SmartCity_design_based_2022\SmartCity.sumocfg"/>
        <additional-files value="C:\Users\kende\Desktop\SUMO_SmartCity_design_based_2022\SmartCity2.add.xml"/>
        <route-files value="C:\Users\kende\Desktop\SUMO_SmartCity_design_based_2022\SmartCity.rou.xml"/>
        <sumo-net-file value="C:\Users\kende\Desktop\SUMO_SmartCity_design_based_2022\SC_SU-102022_v01.net.xml"/>
    </input>

    <output>
        <output-file value="C:\Users\kende\Desktop\SUMO_SmartCity_design_based_2022\SC_SU-102022_v01.net.xml"/>
    </output>

    <processing>
        <geometry.min-radius.fix.railways value="false"/>
        <geometry.max-grade.fix value="false"/>
        <offset.disable-normalization value="true"/>
        <lefthand value="0"/>
    </processing>

    <junctions>
        <no-internal-links value="false"/>
        <no-turnarounds value="true"/>
        <junctions.corner-detail value="5"/>
        <junctions.limit-turn-speed value="5.50"/>
        <rectangular-lane-cut value="1"/>
    </junctions>

    <pedestrian>
        <walkingareas value="0"/>
    </pedestrian>

</configuration>
-->

<net version="1.16" junctionCornerDetail="5" rectangularLaneCut="true" limitTurnSpeed="5.50" xmlns:xsi="http://www.w3.org/2001/XMLSchema-instance" xsi:noNamespaceSchemaLocation="http://sumo.dlr.de/xsd/net_file.xsd">

    <location netOffset="-63.47,-15.90" convBoundary="-10.99,0.00,263.82,499.58" origBoundary="63.47,15.90,327.29,518.08" projParameter="!"/>

    <type id="driving" priority="1" speed="13.89" disallow="pedestrian tram rail_urban rail rail_electric ship" width="3.65"/>

    <edge id=":1_0" function="internal">
        <lane id=":1_0_0" index="0" disallow="pedestrian tram rail_urban rail rail_electric rail_fast ship" speed="13.89" length="15.14" width="3.80" shape="169.80,18.99 170.00,34.15"/>
        <lane id=":1_0_1" index="1" disallow="pedestrian tram rail_urban rail rail_electric rail_fast ship" speed="13.89" length="15.14" width="3.85" shape="166.05,19.00 166.17,34.11"/>
    </edge>
    <edge id=":1_2" function="internal">
        <lane id=":1_2_0" index="0" disallow="pedestrian tram rail_urban rail rail_electric rail_fast ship" speed="6.99" length="10.48" width="4.00" shape="151.59,24.76 154.74,24.40 157.00,23.32 158.35,21.52 158.80,19.01"/>
    </edge>
    <edge id=":1_3" function="internal">
        <lane id=":1_3_0" index="0" disallow="pedestrian tram rail_urban rail rail_electric rail_fast ship" speed="9.28" length="19.52" width="3.85" shape="151.59,24.76 158.00,25.34 162.57,27.10 165.29,30.02 166.17,34.11"/>
    </edge>
    <edge id=":1_4" function="internal">
        <lane id=":1_4_0" index="0" disallow="pedestrian tram rail_urban rail rail_electric rail_fast ship" speed="6.87" length="9.77" width="3.50" shape="157.90,34.03 157.52,31.51 156.35,29.70 154.37,28.62 151.59,28.26"/>
    </edge>
    <edge id=":1_5" function="internal">
        <lane id=":1_5_0" index="0" disallow="pedestrian tram rail_urban rail rail_electric rail_fast ship" speed="13.89" length="15.06" width="4.00" shape="157.90,34.03 158.80,19.01"/>
        <lane id=":1_5_1" index="1" disallow="pedestrian tram rail_urban rail rail_electric rail_fast ship" speed="13.89" length="15.06" width="3.50" shape="162.25,34.07 162.55,19.00"/>
    </edge>
    <edge id=":10_0" function="internal">
        <lane id=":10_0_0" index="0" disallow="pedestrian tram rail_urban rail rail_electric rail_fast ship" speed="1.39" length="15.13" width="2.40" shape="21.40,494.55 18.19,491.28 16.13,488.90 14.35,486.30 11.95,482.39"/>
        <lane id=":10_0_1" index="1" disallow="pedestrian tram rail_urban rail rail_electric rail_fast ship" speed="13.89" length="15.13" width="3.25" shape="23.39,492.55 20.32,489.42 18.36,487.14 16.65,484.66 14.36,480.92"/>
    </edge>
    <edge id=":10_2" function="internal">
        <lane id=":10_2_0" index="0" disallow="pedestrian tram rail_urban rail rail_electric rail_fast ship" speed="7.84" length="4.17" width="2.75" shape="23.39,492.55 21.14,489.38 21.11,489.10"/>
    </edge>
    <edge id=":10_7" function="internal">
        <lane id=":10_7_0" index="0" disallow="pedestrian tram rail_urban rail rail_electric rail_fast ship" speed="7.84" length="11.04" width="2.75" shape="21.11,489.10 20.77,486.21 22.28,483.05 25.67,479.90"/>
    </edge>
    <edge id=":10_3" function="internal">
        <lane id=":10_3_0" index="0" disallow="pedestrian tram rail_urban rail rail_electric rail_fast ship" speed="6.25" length="9.32" width="4.25" shape="27.29,482.12 25.29,484.01 24.44,485.94 24.72,487.92 26.15,489.93"/>
    </edge>
    <edge id=":10_4" function="internal">
        <lane id=":10_4_0" index="0" disallow="pedestrian tram rail_urban rail rail_electric rail_fast ship" speed="7.96" length="15.05" width="3.25" shape="27.29,482.12 23.32,484.35 19.84,484.89 16.85,483.75 14.36,480.92"/>
    </edge>
    <edge id=":10_5" function="internal">
        <lane id=":10_5_0" index="0" disallow="pedestrian tram rail_urban rail rail_electric rail_fast ship" speed="6.59" length="9.48" width="2.75" shape="17.56,478.96 19.15,480.80 21.03,481.56 23.21,481.26 25.67,479.90"/>
    </edge>
    <edge id=":10_6" function="internal">
        <lane id=":10_6_0" index="0" disallow="pedestrian tram rail_urban rail rail_electric rail_fast ship" speed="13.89" length="13.96" width="4.25" shape="17.56,478.96 19.51,481.97 21.52,484.71 23.69,487.31 26.15,489.93"/>
    </edge>
    <edge id=":1015.end_0" function="internal">
        <lane id=":1015.end_0_0" index="0" speed="4.14" length="1.36" shape="137.00,456.10 136.70,456.28 136.38,456.38 136.05,456.40 135.70,456.36"/>
    </edge>
    <edge id=":1017.end_0" function="internal">
        <lane id=":1017.end_0_0" index="0" speed="6.74" length="5.25" shape="141.48,446.28 142.07,447.60 142.33,448.87 142.26,450.11 141.86,451.31"/>
    </edge>
    <edge id=":11_0" function="internal">
        <lane id=":11_0_0" index="0" disallow="pedestrian tram rail_urban rail rail_electric rail_fast ship" speed="13.89" length="3.75" width="3.25" shape="137.62,502.83 134.62,500.58"/>
    </edge>
    <edge id=":11_1" function="internal">
        <lane id=":11_1_0" index="0" disallow="pedestrian tram rail_urban rail rail_electric rail_fast ship" speed="13.89" length="3.00" width="3.00" shape="134.62,497.33 137.62,497.38"/>
    </edge>
    <edge id=":12_0" function="internal">
        <lane id=":12_0_0" index="0" disallow="pedestrian tram rail_urban rail rail_electric rail_fast ship" speed="13.89" length="17.14" width="4.50" shape="173.86,504.20 168.79,504.18 165.34,503.69 161.88,503.11 156.81,502.84"/>
    </edge>
    <edge id=":12_1" function="internal">
        <lane id=":12_1_0" index="0" disallow="pedestrian tram rail_urban rail rail_electric rail_fast ship" speed="8.48" length="5.69" width="3.50" shape="173.69,501.08 168.82,500.71 168.09,500.36"/>
    </edge>
    <edge id=":12_6" function="internal">
        <lane id=":12_6_0" index="0" disallow="pedestrian tram rail_urban rail rail_electric rail_fast ship" speed="8.48" length="11.11" width="3.50" shape="168.09,500.36 165.34,499.03 163.26,496.01 162.56,491.68"/>
    </edge>
    <edge id=":12_2" function="internal">
        <lane id=":12_2_0" index="0" disallow="pedestrian tram rail_urban rail rail_electric rail_fast ship" speed="7.09" length="11.25" width="3.25" shape="166.06,491.68 166.53,494.58 167.93,496.59 170.26,497.71 173.52,497.96"/>
    </edge>
    <edge id=":12_3" function="internal">
        <lane id=":12_3_0" index="0" disallow="pedestrian tram rail_urban rail rail_electric rail_fast ship" speed="8.61" length="16.49" width="4.50" shape="166.06,491.68 165.48,496.56 163.75,500.05 160.86,502.14 156.81,502.84"/>
    </edge>
    <edge id=":12_4" function="internal">
        <lane id=":12_4_0" index="0" disallow="pedestrian tram rail_urban rail rail_electric rail_fast ship" speed="6.55" length="9.24" width="3.50" shape="156.81,497.39 159.33,497.03 161.12,495.96 162.20,494.18 162.56,491.68"/>
    </edge>
    <edge id=":12_5" function="internal">
        <lane id=":12_5_0" index="0" disallow="pedestrian tram rail_urban rail rail_electric rail_fast ship" speed="13.89" length="16.72" width="3.25" shape="156.81,497.39 173.52,497.96"/>
    </edge>
    <edge id=":13_0" function="internal">
        <lane id=":13_0_0" index="0" disallow="pedestrian tram rail_urban rail rail_electric rail_fast ship" speed="13.89" length="14.50" width="3.25" shape="8.93,406.07 8.90,391.57"/>
    </edge>
    <edge id=":13_1" function="internal">
        <lane id=":13_1_0" index="0" disallow="pedestrian tram rail_urban rail rail_electric rail_fast ship" speed="8.25" length="3.77" width="3.25" shape="8.93,406.07 9.52,402.35"/>
    </edge>
    <edge id=":13_6" function="internal">
        <lane id=":13_6_0" index="0" disallow="pedestrian tram rail_urban rail rail_electric rail_fast ship" speed="8.25" length="11.36" width="3.25" shape="9.52,402.35 9.54,402.19 11.39,399.41 14.48,397.75 18.80,397.19"/>
    </edge>
    <edge id=":13_2" function="internal">
        <lane id=":13_2_0" index="0" disallow="pedestrian tram rail_urban rail rail_electric rail_fast ship" speed="6.66" length="9.48" width="4.25" shape="18.80,400.44 16.12,400.80 14.21,401.85 13.06,403.61 12.68,406.07"/>
    </edge>
    <edge id=":13_3" function="internal">
        <lane id=":13_3_0" index="0" disallow="pedestrian tram rail_urban rail rail_electric rail_fast ship" speed="8.25" length="15.14" width="3.25" shape="18.80,400.44 14.47,399.89 11.38,398.23 9.52,395.45 8.90,391.57"/>
    </edge>
    <edge id=":13_4" function="internal">
        <lane id=":13_4_0" index="0" disallow="pedestrian tram rail_urban rail rail_electric rail_fast ship" speed="6.79" length="9.91" width="3.25" shape="12.15,391.57 12.57,394.03 13.82,395.79 15.89,396.84 18.80,397.19"/>
    </edge>
    <edge id=":13_5" function="internal">
        <lane id=":13_5_0" index="0" disallow="pedestrian tram rail_urban rail rail_electric rail_fast ship" speed="13.89" length="14.51" width="4.25" shape="12.15,391.57 12.68,406.07"/>
    </edge>
    <edge id=":14_0" function="internal">
        <lane id=":14_0_0" index="0" disallow="pedestrian tram rail_urban rail rail_electric rail_fast ship" speed="13.89" length="17.77" width="3.25" shape="245.08,473.11 242.87,476.03 240.45,478.99 237.25,482.16 232.71,485.74"/>
    </edge>
    <edge id=":14_1" function="internal">
        <lane id=":14_1_0" index="0" disallow="pedestrian tram rail_urban rail rail_electric rail_fast ship" speed="13.89" length="16.55" width="3.25" shape="229.84,481.70 233.11,479.39 236.56,476.82 239.82,474.06 242.51,471.15"/>
    </edge>
    <edge id=":15_0" function="internal">
        <lane id=":15_0_0" index="0" disallow="pedestrian tram rail_urban rail rail_electric rail_fast ship" speed="13.89" length="3.00" width="3.50" shape="162.56,452.22 162.56,449.22"/>
    </edge>
    <edge id=":15_1" function="internal">
        <lane id=":15_1_0" index="0" disallow="pedestrian tram rail_urban rail rail_electric rail_fast ship" speed="13.89" length="3.00" width="3.50" shape="166.06,449.22 166.06,452.22"/>
    </edge>
    <edge id=":16_0" function="internal">
        <lane id=":16_0_0" index="0" disallow="pedestrian tram rail_urban rail rail_electric rail_fast ship" speed="8.68" length="11.36" width="3.75" shape="62.28,422.56 61.81,420.41 60.40,418.40 58.06,416.54 54.78,414.82"/>
    </edge>
    <edge id=":16_1" function="internal">
        <lane id=":16_1_0" index="0" allow="pedestrian" speed="6.94" length="0.74" width="2.00" shape="72.80,418.11 72.21,418.56"/>
        <lane id=":16_1_1" index="1" disallow="pedestrian tram rail_urban rail rail_electric rail_fast ship" speed="8.53" length="4.26" width="4.00" shape="71.17,415.74 69.03,417.42 68.01,418.56"/>
    </edge>
    <edge id=":16_3" function="internal">
        <lane id=":16_3_0" index="0" disallow="pedestrian tram rail_urban rail rail_electric rail_fast ship" speed="10.18" length="13.56" width="3.25" shape="69.20,412.85 66.89,413.80 63.95,413.91 60.38,413.18 56.19,411.61"/>
    </edge>
    <edge id=":16_4" function="internal">
        <lane id=":16_4_0" index="0" allow="pedestrian" speed="6.94" length="5.12" width="2.00" shape="72.21,418.56 71.26,419.29 70.16,420.43 69.50,421.52 69.28,422.56"/>
    </edge>
    <edge id=":16_5" function="internal">
        <lane id=":16_5_0" index="0" disallow="pedestrian tram rail_urban rail rail_electric rail_fast ship" speed="8.53" length="4.45" width="4.00" shape="68.01,418.56 67.50,419.12 66.59,420.83 66.28,422.56"/>
    </edge>
    <edge id=":16_c0" function="crossing" crossingEdges="4592.0.20 -4592.0.20">
        <lane id=":16_c0_0" index="0" allow="pedestrian" speed="2.78" length="8.00" width="4.00" shape="68.28,420.56 60.28,420.56"/>
    </edge>
    <edge id=":16_w0" function="walkingarea">
        <lane id=":16_w0_0" index="0" allow="pedestrian" speed="2.78" length="2.24" width="4.00" shape="58.28,422.56 60.28,422.56 60.11,421.48 59.58,420.43 58.72,419.41 57.50,418.42 55.94,417.46"/>
    </edge>
    <edge id=":16_w1" function="walkingarea">
        <lane id=":16_w1_0" index="0" allow="pedestrian" speed="2.78" length="4.35" width="4.00" shape="68.28,422.56 70.28,422.56 73.36,418.94 72.23,417.29 71.02,418.18 70.04,419.08 69.27,419.96 68.72,420.83 68.39,421.70"/>
    </edge>
    <edge id=":17_0" function="internal">
        <lane id=":17_0_0" index="0" disallow="pedestrian tram rail_urban rail rail_electric rail_fast ship" speed="6.42" length="8.91" width="3.25" shape="28.88,406.12 28.54,403.64 27.54,401.86 25.86,400.80 23.50,400.44"/>
    </edge>
    <edge id=":17_1" function="internal">
        <lane id=":17_1_0" index="0" disallow="pedestrian tram rail_urban rail rail_electric rail_fast ship" speed="13.89" length="14.55" width="2.75" shape="28.88,406.12 28.90,391.57"/>
    </edge>
    <edge id=":17_2" function="internal">
        <lane id=":17_2_0" index="0" disallow="pedestrian tram rail_urban rail rail_electric rail_fast ship" speed="7.83" length="3.76" width="3.25" shape="28.88,406.12 29.37,402.39"/>
    </edge>
    <edge id=":17_12" function="internal">
        <lane id=":17_12_0" index="0" disallow="pedestrian tram rail_urban rail rail_electric rail_fast ship" speed="7.83" length="9.98" width="3.25" shape="29.37,402.39 29.39,402.23 30.91,399.45 33.46,397.80 37.03,397.26"/>
    </edge>
    <edge id=":17_3" function="internal">
        <lane id=":17_3_0" index="0" disallow="pedestrian tram rail_urban rail rail_electric rail_fast ship" speed="6.45" length="8.87" width="2.75" shape="37.01,400.51 34.66,400.85 32.97,401.90 31.97,403.65 31.63,406.12"/>
    </edge>
    <edge id=":17_4" function="internal">
        <lane id=":17_4_0" index="0" disallow="pedestrian tram rail_urban rail rail_electric rail_fast ship" speed="13.89" length="13.51" width="3.25" shape="37.01,400.51 23.50,400.44"/>
    </edge>
    <edge id=":17_5" function="internal">
        <lane id=":17_5_0" index="0" disallow="pedestrian tram rail_urban rail rail_electric rail_fast ship" speed="7.91" length="13.74" width="2.75" shape="37.01,400.51 33.47,399.94 30.94,398.25 29.41,395.46 28.90,391.57"/>
    </edge>
    <edge id=":17_6" function="internal">
        <lane id=":17_6_0" index="0" disallow="pedestrian tram rail_urban rail rail_electric rail_fast ship" speed="6.44" length="8.92" width="3.25" shape="31.65,391.56 31.99,394.04 33.00,395.82 34.68,396.89 37.03,397.26"/>
    </edge>
    <edge id=":17_7" function="internal">
        <lane id=":17_7_0" index="0" disallow="pedestrian tram rail_urban rail rail_electric rail_fast ship" speed="13.89" length="14.56" width="2.75" shape="31.65,391.56 31.63,406.12"/>
    </edge>
    <edge id=":17_8" function="internal">
        <lane id=":17_8_0" index="0" disallow="pedestrian tram rail_urban rail rail_electric rail_fast ship" speed="7.84" length="3.77" width="3.25" shape="31.65,391.56 31.17,395.29"/>
    </edge>
    <edge id=":17_13" function="internal">
        <lane id=":17_13_0" index="0" disallow="pedestrian tram rail_urban rail rail_electric rail_fast ship" speed="7.84" length="9.98" width="3.25" shape="31.17,395.29 31.15,395.45 29.62,398.22 27.08,399.89 23.50,400.44"/>
    </edge>
    <edge id=":17_9" function="internal">
        <lane id=":17_9_0" index="0" disallow="pedestrian tram rail_urban rail rail_electric rail_fast ship" speed="6.46" length="8.89" width="2.75" shape="23.50,397.19 25.87,396.84 27.56,395.79 28.57,394.03 28.90,391.57"/>
    </edge>
    <edge id=":17_10" function="internal">
        <lane id=":17_10_0" index="0" disallow="pedestrian tram rail_urban rail rail_electric rail_fast ship" speed="13.89" length="13.52" width="3.25" shape="23.50,397.19 37.03,397.26"/>
    </edge>
    <edge id=":17_11" function="internal">
        <lane id=":17_11_0" index="0" disallow="pedestrian tram rail_urban rail rail_electric rail_fast ship" speed="7.89" length="13.75" width="2.75" shape="23.50,397.19 27.06,397.75 29.60,399.43 31.12,402.21 31.63,406.12"/>
    </edge>
    <edge id=":18_0" function="internal">
        <lane id=":18_0_0" index="0" disallow="pedestrian tram rail_urban rail rail_electric rail_fast ship" speed="13.89" length="8.28" width="3.50" shape="162.54,401.33 162.34,393.05"/>
    </edge>
    <edge id=":18_1" function="internal">
        <lane id=":18_1_0" index="0" disallow="pedestrian tram rail_urban rail rail_electric rail_fast ship" speed="13.89" length="9.26" width="3.50" shape="169.66,393.05 169.09,395.62 167.85,397.19 166.60,398.76 166.04,401.32"/>
    </edge>
    <edge id=":18_w1" function="walkingarea">
        <lane id=":18_w1_0" index="0" allow="pedestrian" speed="2.78" length="9.03" width="2.00" shape="167.79,401.32 169.79,401.32 173.41,393.06 171.41,393.05 171.14,394.92 170.47,396.20 169.60,397.19 168.73,398.18 168.06,399.46"/>
    </edge>
    <edge id=":1871.3.30_0" function="internal">
        <lane id=":1871.3.30_0_0" index="0" disallow="pedestrian tram rail_urban rail rail_electric rail_fast ship" speed="7.64" length="8.62" width="2.40" shape="53.98,500.58 51.42,501.02 49.77,502.00 48.12,502.94 45.56,503.25"/>
        <lane id=":1871.3.30_0_1" index="1" disallow="pedestrian tram rail_urban rail rail_electric rail_fast ship" speed="13.89" length="8.62" width="3.25" shape="53.98,500.58 45.73,500.43"/>
    </edge>
    <edge id=":1871.3.30_2" function="internal">
        <lane id=":1871.3.30_2_0" index="0" disallow="pedestrian tram rail_urban rail rail_electric rail_fast ship" speed="13.89" length="8.05" width="4.25" shape="45.96,496.69 54.01,496.83"/>
    </edge>
    <edge id=":19_0" function="internal">
        <lane id=":19_0_0" index="0" allow="bus" speed="13.89" length="8.49" width="3.50" shape="155.27,353.50 154.52,345.03"/>
        <lane id=":19_0_1" index="1" disallow="pedestrian tram rail_urban rail rail_electric rail_fast ship" speed="13.89" length="8.49" width="3.50" shape="158.77,353.49 158.02,345.03"/>
        <lane id=":19_0_2" index="2" disallow="pedestrian tram rail_urban rail rail_electric rail_fast ship" speed="13.89" length="8.49" width="3.50" shape="162.27,353.48 161.52,345.04"/>
    </edge>
    <edge id=":19_3" function="internal">
        <lane id=":19_3_0" index="0" disallow="pedestrian tram rail_urban rail rail_electric rail_fast ship" speed="13.89" length="9.55" width="3.50" shape="177.20,345.06 176.54,347.67 175.10,349.22 173.66,350.77 173.03,353.38"/>
        <lane id=":19_3_1" index="1" disallow="pedestrian tram rail_urban rail rail_electric rail_fast ship" speed="13.89" length="9.55" width="3.50" shape="173.45,345.05 172.83,347.65 171.47,349.23 170.13,350.80 169.53,353.41"/>
        <lane id=":19_3_2" index="2" disallow="pedestrian tram rail_urban rail rail_electric rail_fast ship" speed="13.89" length="9.55" width="3.50" shape="169.95,345.04 169.33,347.65 167.97,349.23 166.63,350.81 166.03,353.43"/>
    </edge>
    <edge id=":19_6" function="internal">
        <lane id=":19_6_0" index="0" allow="bus" speed="6.34" length="8.09" width="3.50" shape="148.77,349.26 151.28,349.00 153.07,348.21 154.15,346.88 154.52,345.03"/>
        <lane id=":19_6_1" index="1" disallow="pedestrian tram rail_urban rail rail_electric rail_fast ship" speed="7.29" length="11.17" width="3.50" shape="148.77,349.26 152.81,349.00 155.70,348.21 157.43,346.88 158.02,345.03"/>
    </edge>
    <edge id=":19_w1" function="walkingarea">
        <lane id=":19_w1_0" index="0" allow="pedestrian" speed="2.78" length="28.44" width="1.00" shape="164.70,345.02 163.95,345.02 163.27,345.04"/>
    </edge>
    <edge id=":2_0" function="internal">
        <lane id=":2_0_0" index="0" allow="bus" speed="13.89" length="12.56" width="4.00" shape="155.37,204.86 155.01,201.14 154.23,198.65 153.44,196.16 153.07,192.44"/>
        <lane id=":2_0_1" index="1" allow="bicycle" speed="13.89" length="12.56" width="2.00" shape="158.12,204.86 157.80,201.15 157.10,198.65 156.40,196.15 156.07,192.43"/>
        <lane id=":2_0_2" index="2" disallow="pedestrian tram rail_urban rail rail_electric rail_fast ship" speed="13.89" length="12.56" width="3.50" shape="158.87,204.86 158.82,192.42"/>
        <lane id=":2_0_3" index="3" disallow="pedestrian tram rail_urban rail rail_electric rail_fast ship" speed="13.89" length="12.56" width="4.00" shape="162.37,204.86 162.57,192.41"/>
    </edge>
    <edge id=":2_4" function="internal">
        <lane id=":2_4_0" index="0" disallow="pedestrian tram rail_urban rail rail_electric rail_fast ship" speed="10.03" length="5.81" width="3.25" shape="162.37,204.86 163.58,201.41 165.37,200.21"/>
    </edge>
    <edge id=":2_13" function="internal">
        <lane id=":2_13_0" index="0" disallow="pedestrian tram rail_urban rail rail_electric rail_fast ship" speed="10.03" length="16.99" width="3.25" shape="165.37,200.21 167.22,198.95 173.29,197.48 181.78,196.99"/>
    </edge>
    <edge id=":2_5" function="internal">
        <lane id=":2_5_0" index="0" disallow="pedestrian tram rail_urban rail rail_electric rail_fast ship" speed="6.09" length="7.76" width="4.00" shape="181.78,200.24 179.59,200.52 178.03,201.39 177.09,202.84 176.78,204.86"/>
    </edge>
    <edge id=":2_6" function="internal">
        <lane id=":2_6_0" index="0" disallow="pedestrian tram rail_urban rail rail_electric rail_fast ship" speed="9.98" length="22.57" width="4.00" shape="181.78,200.24 173.39,199.75 167.39,198.28 163.78,195.83 162.57,192.41"/>
    </edge>
    <edge id=":2_7" function="internal">
        <lane id=":2_7_0" index="0" disallow="pedestrian tram rail_urban rail rail_electric rail_fast ship" speed="6.69" length="9.33" width="3.25" shape="174.91,192.37 175.35,194.39 176.64,195.83 178.78,196.70 181.78,196.99"/>
    </edge>
    <edge id=":2_8" function="internal">
        <lane id=":2_8_0" index="0" disallow="pedestrian tram rail_urban rail rail_electric rail_fast ship" speed="13.89" length="12.65" width="4.00" shape="174.91,192.37 175.21,196.10 175.85,198.61 176.49,201.13 176.78,204.86"/>
        <lane id=":2_8_1" index="1" disallow="pedestrian tram rail_urban rail rail_electric rail_fast ship" speed="13.89" length="12.65" width="3.50" shape="171.16,192.38 171.46,196.10 172.10,198.62 172.74,201.14 173.03,204.86"/>
        <lane id=":2_8_2" index="2" disallow="pedestrian tram rail_urban rail rail_electric rail_fast ship" speed="13.89" length="12.65" width="4.50" shape="167.41,192.39 167.68,196.11 168.23,198.63 168.78,201.14 169.03,204.86"/>
    </edge>
    <edge id=":2_11" function="internal">
        <lane id=":2_11_0" index="0" allow="bus" speed="6.74" length="9.40" width="4.00" shape="147.07,198.08 149.71,197.74 151.58,196.68 152.71,194.92 153.07,192.44"/>
        <lane id=":2_11_1" index="1" disallow="pedestrian tram rail_urban rail rail_electric rail_fast ship" speed="8.14" length="14.40" width="3.50" shape="147.07,198.08 152.22,197.74 155.90,196.69 158.10,194.92 158.82,192.42"/>
    </edge>
    <edge id=":2.47.00_0" function="internal">
        <lane id=":2.47.00_0_0" index="0" disallow="pedestrian tram rail_urban rail rail_electric rail_fast ship" speed="13.89" length="3.36" width="3.50" shape="82.58,29.42 81.66,29.20 81.09,28.74 80.53,28.27 79.61,28.06"/>
    </edge>
    <edge id=":2.47.00_1" function="internal">
        <lane id=":2.47.00_1_0" index="0" disallow="pedestrian tram rail_urban rail rail_electric rail_fast ship" speed="13.89" length="3.39" shape="79.60,24.56 80.53,24.35 81.11,23.89 81.68,23.42 82.62,23.22"/>
    </edge>
    <edge id=":2.90.00_0" function="internal">
        <lane id=":2.90.00_0_0" index="0" allow="bicycle" speed="13.89" length="9.12" width="2.00" shape="112.94,31.06 110.24,31.11 108.39,31.26 106.57,31.59 103.94,32.22"/>
    </edge>
    <edge id=":2.90.00_1" function="internal">
        <lane id=":2.90.00_1_0" index="0" speed="13.89" length="9.26" shape="112.92,28.46 103.68,29.21"/>
    </edge>
    <edge id=":2.90.00_2" function="internal">
        <lane id=":2.90.00_2_0" index="0" allow="bicycle" speed="13.89" length="5.26" width="2.00" shape="108.02,20.81 109.43,21.50 110.37,22.10 111.35,22.52 112.86,22.66"/>
    </edge>
    <edge id=":2.90.00_3" function="internal">
        <lane id=":2.90.00_3_0" index="0" speed="13.89" length="9.29" shape="103.81,23.51 106.53,23.84 108.35,24.44 110.17,25.02 112.88,25.26"/>
    </edge>
    <edge id=":2.90.00_w0" function="walkingarea">
        <lane id=":2.90.00_w0_0" index="0" allow="pedestrian" speed="2.78" length="8.40" width="3.20" shape="112.93,30.06 112.90,26.86 112.87,23.66"/>
    </edge>
    <edge id=":20_0" function="internal">
        <lane id=":20_0_0" index="0" disallow="pedestrian tram rail_urban rail rail_electric rail_fast ship" speed="6.53" length="9.07" width="3.25" shape="262.15,406.09 261.79,403.63 260.73,401.87 258.97,400.82 256.51,400.46"/>
    </edge>
    <edge id=":20_1" function="internal">
        <lane id=":20_1_0" index="0" disallow="pedestrian tram rail_urban rail rail_electric rail_fast ship" speed="13.89" length="18.00" width="3.25" shape="262.15,406.09 262.19,388.09"/>
    </edge>
    <edge id=":20_2" function="internal">
        <lane id=":20_2_0" index="0" disallow="pedestrian tram rail_urban rail rail_electric rail_fast ship" speed="13.89" length="17.99" width="3.25" shape="265.44,388.09 265.40,406.08"/>
    </edge>
    <edge id=":20_3" function="internal">
        <lane id=":20_3_0" index="0" disallow="pedestrian tram rail_urban rail rail_electric rail_fast ship" speed="8.78" length="17.27" width="3.25" shape="265.44,388.09 264.89,393.50 263.21,397.37 260.42,399.69 256.51,400.46"/>
    </edge>
    <edge id=":20_4" function="internal">
        <lane id=":20_4_0" index="0" disallow="pedestrian tram rail_urban rail rail_electric rail_fast ship" speed="6.60" length="9.22" width="3.25" shape="256.51,393.84 259.00,393.48 260.77,392.40 261.84,390.61 262.19,388.09"/>
    </edge>
    <edge id=":20_5" function="internal">
        <lane id=":20_5_0" index="0" disallow="pedestrian tram rail_urban rail rail_electric rail_fast ship" speed="8.04" length="14.30" width="3.25" shape="256.51,397.21 260.39,397.77 263.16,399.43 264.83,402.20 265.40,406.08"/>
    </edge>
    <edge id=":2048.17.50_0" function="internal">
        <lane id=":2048.17.50_0_0" index="0" disallow="pedestrian tram rail_urban rail rail_electric rail_fast ship" speed="7.64" length="8.10" width="3.25" shape="6.23,464.34 6.51,461.94 7.45,460.40 8.46,458.85 8.93,456.44"/>
        <lane id=":2048.17.50_0_1" index="1" disallow="pedestrian tram rail_urban rail rail_electric rail_fast ship" speed="13.89" length="8.10" width="3.25" shape="9.05,464.12 8.93,456.44"/>
    </edge>
    <edge id=":2048.17.50_2" function="internal">
        <lane id=":2048.17.50_2_0" index="0" disallow="pedestrian tram rail_urban rail rail_electric rail_fast ship" speed="13.89" length="7.38" width="4.25" shape="12.68,456.44 12.78,463.82"/>
    </edge>
    <edge id=":21_0" function="internal">
        <lane id=":21_0_0" index="0" disallow="pedestrian tram rail_urban rail rail_electric rail_fast ship" speed="13.89" length="8.00" width="3.25" shape="222.13,403.71 214.13,403.71"/>
        <lane id=":21_0_1" index="1" disallow="pedestrian tram rail_urban rail rail_electric rail_fast ship" speed="13.89" length="8.00" width="3.25" shape="222.13,400.46 214.13,400.46"/>
    </edge>
    <edge id=":21_2" function="internal">
        <lane id=":21_2_0" index="0" disallow="pedestrian tram rail_urban rail rail_electric rail_fast ship" speed="1.39" length="8.00" width="3.00" shape="214.13,390.59 222.13,390.59"/>
        <lane id=":21_2_1" index="1" disallow="pedestrian tram rail_urban rail rail_electric rail_fast ship" speed="13.89" length="8.00" width="3.50" shape="214.13,393.84 222.13,393.84"/>
        <lane id=":21_2_2" index="2" disallow="pedestrian tram rail_urban rail rail_electric rail_fast ship" speed="13.89" length="8.00" width="3.25" shape="214.13,397.21 222.13,397.21"/>
    </edge>
    <edge id=":22_0" function="internal">
        <lane id=":22_0_0" index="0" allow="pedestrian" speed="6.67" length="6.42" width="2.00" shape="70.22,376.88 70.50,377.88 71.35,378.91 72.77,379.99 74.75,381.10"/>
        <lane id=":22_0_1" index="1" disallow="pedestrian tram rail_urban rail rail_electric rail_fast ship" speed="8.21" length="9.58" width="3.75" shape="67.34,376.88 67.73,378.71 68.88,380.45 70.79,382.10 73.47,383.67"/>
    </edge>