<?xml version="1.0" encoding="UTF-8"?>

<!-- generated on 2025-11-13 18:05:38 by Eclipse SUMO netedit Version 1.19.0
-->

<routes xmlns:xsi="http://www.w3.org/2001/XMLSchema-instance" xsi:noNamespaceSchemaLocation="http://sumo.dlr.de/xsd/routes_file.xsd">
    <!-- Vehicles, persons and containers (sorted by depart) -->
    <flow id="f_0" begin="0.00" color="green" from="2697.0.00" to="-2048.17.50" end="3600.00" vehsPerHour="1050"/>
    <flow id="f_1" begin="0.00" color="0,128,0" from="2697.0.00" to="-3526.23.00" end="3600.00" vehsPerHour="360"/>
    <flow id="f_2" begin="0.00" color="cyan" from="2048.17.50" to="-2697.0.00.23" end="3600.00" vehsPerHour="240"/>
    <flow id="f_3" begin="0.00" color="blue" from="2048.17.50" to="-3526.23.00" end="3600.00" vehsPerHour="240"/>
    <flow id="f_4" begin="0.00" color="128,0,128" from="3526.23.00" to="-2697.0.00.23" end="3600.00" vehsPerHour="180"/>
    <flow id="f_5" begin="0.00" color="magenta" from="3526.23.00" to="-2048.17.50" end="3600.00" vehsPerHour="180"/>
</routes>
